TotalNumberOfSites=8
NumberOfTerms=4

DegreesOfFreedom=1
GeometryKind=chain
GeometryOptions=ConstantValues
Connectors 1 -1

DegreesOfFreedom=1
GeometryKind=chain
GeometryOptions=ConstantValues
Connectors 1 0.8333

DegreesOfFreedom=1
GeometryKind=chain
GeometryOptions=ConstantValues
Connectors 1 0.8333

DegreesOfFreedom=1
GeometryKind=chain
GeometryOptions=ConstantValues
Connectors 1 0

Model=TjMultiOrb

potentialV 16
0 0 0 6.666 0 0 0 0
0 0 0 6.666 0 0 0 0
InfiniteLoopKeptStates=100
FiniteLoops 4
-6 100 2 6 100 2
-6 100 2 6 100 2

TargetElectronsUp=4
TargetElectronsDown=4
Threads=1

SolverOptions=CorrectionVectorTargeting,twositedmrg,restart
CorrectionA=0
Version=version
RestartFilename=data5500

OutputFile=data5501
MaxMatrixRankStored=512
CorrectionVectorOmega=1
DynamicDmrgType=0
TSPProductOrSum=sum
CorrectionVectorFreqType=Real

CorrectionVectorEta=0.2
CorrectionVectorAlgorithm=Krylov
Orbitals=1

GsWeight=0.1

TSPSites 1 3
TSPLoops 1 1

TSPOperator=raw
RAW_MATRIX
3 3
0 0 1
0 0 0
0 0 0
FERMIONSIGN=-1
JMVALUES 2 1 1
AngularFactor=1
#ci dmrg arguments= -p 12 "<gs|c'|P1>,<gs|c'|P2>,<gs|c'|P3>"
#ci CollectBrakets 0
