TotalNumberOfSites=8
NumberOfTerms=4

DegreesOfFreedom=1
GeometryKind=chain
GeometryOptions=ConstantValues
Connectors 1 -1

DegreesOfFreedom=1
GeometryKind=chain
GeometryOptions=ConstantValues
Connectors 1 0.8333

DegreesOfFreedom=1
GeometryKind=chain
GeometryOptions=ConstantValues
Connectors 1 0.8333

DegreesOfFreedom=1
GeometryKind=chain
GeometryOptions=ConstantValues
Connectors 1 0

Model=TjMultiOrb

potentialV 16
0 0 0 0 0 6.666 0 0
0 0 0 0 0 6.666 0 0
InfiniteLoopKeptStates=100
FiniteLoops 4
-6 100 2 6 100 2
-6 100 2 6 100 2

TargetElectronsUp=4
TargetElectronsDown=4
Threads=1

SolverOptions=TargetingRixsStatic,twositedmrg,restart,keepLegacyBugs
CorrectionA=0
Version=version
RestartFilename=data5501

OutputFile=data5502

CorrectionVectorOmega=1
DynamicDmrgType=0
TSPProductOrSum=sum
CorrectionVectorFreqType=Real

CorrectionVectorEta=0.2
CorrectionVectorAlgorithm=Krylov
Orbitals=1

GsWeight=0.1

TSPSites 1 5
TSPLoops 1 1

TSPOperator=raw
RAW_MATRIX
3 3
0 0 1
0 0 0
0 0 0
FERMIONSIGN=-1
JMVALUES 2 1 1
AngularFactor=1
#ci dmrg arguments= -p 12 "<gs|c'|P0>,<gs|c'|P1>,<gs|c'|P2>,<gs|c'|P3>,<gs|c'|P4>,<gs|c'|P5>"
#ci CollectBrakets 0
